Cold and dry, but everything is my favorite color.
new line.
Another new line.
